*
.model 2N2222 NPN( Vtf=1.7 Cjc=7.306p Nc=2 Tr=46.91n Ne=1.307 
+ Cje=22.01p Vjc=.75 Xtb=1.5 Rb=10 Rc=1 
+ Tf=411.1p Xti=3 Ikr=0 Bf=400 Fc=.5 
+ Ikf=.2847 Br=6.092 Mje=.377 Mjc=.3416 Vaf=74.03 
+ Isc=0 Ise=14.34f Xtf=3 Vje=.75 Is=14.34f 
+ Itf=.6 Eg=1.14 )

*----------------------------------------------------------------------- 
.model BC549C   NPN(Bf=490 Br=2.9 Cjc=5.5p Cje=12p Eg=1.1 Fc=.5 IkF=.1500 Ikr=6
+               Is=8f Isc=7p Ise=100f Itf=1.4 Mjc=.31 Mje=.7 Nc=1.5 Ne=1.8 
+               Nk=.63 Rc=1.12 Tf=420p Tr=10n Vaf=24 Vjc=.5 Vje=.5 Vtf=12
+               Xtb=1.5  Xtf=50 Xti=3)
*