*
.model 2N2907 PNP (
+ BF=217.797 BR=2.98475 CJC=36.6437p CJE=67.0252p IKF=1.12749
+ IKR=1.00038 IS=10.0118f ISC=9.55131p ISE=1.01042p ITF=10m MJC=558.066m
+ MJE=595.493m NE=1.65086 NF=954.211m RC=405.548m RE=1.56766 TF=1n TR=29.1239n
+VAF=100 VJC=700m VJE=700m VTF=10 XTF=500m )