*==============================================================================
* Library      : Fast Recovery Rectifiers Diodes 
* Category     : Fast Recovery Rectifier Diodes (1A - 3A)
* Format       : SPICE Model (.MODEL)
* Last Update  : 2026-06-21 
*==============================================================================

*------------------------------------------------------------------------------
* RS1A - Fast Rectifier Diode
* VRRM = 50 V, IF = 1 A, trr ≈ 0.15 us
*------------------------------------------------------------------------------
.MODEL RS1A D ( IS=948n RS=81.3m N=2.48 BV=50 IBV=5u CJO=37.0p M=0.333 TT=216n)

*------------------------------------------------------------------------------
* RS1B - Fast Rectifier Diode
* VRRM = 100 V, IF = 1 A, trr ≈ 0.15 us
*------------------------------------------------------------------------------
.MODEL RS1B D ( IS=948n RS=81.3m N=2.48 BV=100 IBV=5u CJO=37.0p M=0.333 TT=216n)

*------------------------------------------------------------------------------
* RS1D - Fast Rectifier Diode
* VRRM = 200 V, IF = 1 A, trr ≈ 0.15 us
*------------------------------------------------------------------------------
.MODEL RS1D D ( IS=948n RS=81.3m N=2.48 BV=200 IBV=5u CJO=37.0p M=0.333 TT=216n)

*------------------------------------------------------------------------------
* RS1G - Fast Rectifier Diode
* VRRM = 400 V, IF = 1 A, trr ≈ 0.15 us
*------------------------------------------------------------------------------
.MODEL RS1G D ( IS=948n RS=81.3m N=2.48 BV=400 IBV=5u CJO=37.0p M=0.333 TT=216n)

*------------------------------------------------------------------------------
* RS1J - Fast Rectifier Diode
* VRRM = 600 V, IF = 1 A, trr ≈ 0.25 us
*------------------------------------------------------------------------------
.MODEL RS1J D ( IS=948n RS=81.3m N=2.48 BV=600 IBV=5u CJO=37.0p M=0.333 TT=360n)

*------------------------------------------------------------------------------
* RS1K - Fast Rectifier Diode
* VRRM = 800 V, IF = 1 A, trr ≈ 0.5 us
*------------------------------------------------------------------------------
.MODEL RS1K D ( IS=948n RS=81.3m N=2.48 BV=800 IBV=5u CJO=37.0p M=0.333 TT=720n)

*------------------------------------------------------------------------------
* RS1M - Fast Rectifier Diode
* VRRM = 1000 V, IF = 1 A, trr ≈ 0.5 us
*------------------------------------------------------------------------------
.MODEL RS1M D ( IS=948n RS=81.3m N=2.48 BV=1000 IBV=5u CJO=37.0p M=0.333 TT=720n)

*------------------------------------------------------------------------------
* RS2A - Fast Rectifier Diode
* VRRM = 50 V, IF = 1.5 A, trr ≈ 0.15 us
*------------------------------------------------------------------------------
.MODEL RS2A D ( IS=169u RS=4.81m N=6.02 BV=50 IBV=5u CJO=55.5p M=0.333 TT=216n)

*------------------------------------------------------------------------------
* RS2B - Fast Rectifier Diode
* VRRM = 100 V, IF = 1.5 A, trr ≈ 0.15 us
*------------------------------------------------------------------------------
.MODEL RS2B D ( IS=169u RS=4.81m N=6.02 BV=100 IBV=5u CJO=55.5p M=0.333 TT=216n)

*------------------------------------------------------------------------------
* RS2D - Fast Rectifier Diode
* VRRM = 200 V, IF = 1.5 A, trr ≈ 0.15 us
*------------------------------------------------------------------------------
.MODEL RS2D D ( IS=169u RS=4.81m N=6.02 BV=200 IBV=5u CJO=55.5p M=0.333 TT=216n)

*------------------------------------------------------------------------------
* RS2G - Fast Rectifier Diode
* VRRM = 400 V, IF = 1.5 A, trr ≈ 0.15 us
*------------------------------------------------------------------------------
.MODEL RS2G D ( IS=169u RS=4.81m N=6.02 BV=400 IBV=5u CJO=55.5p M=0.333 TT=216n)

*------------------------------------------------------------------------------
* RS2J - Fast Rectifier Diode
* VRRM = 600 V, IF = 1.5 A, trr ≈ 0.25 us
*------------------------------------------------------------------------------
.MODEL RS2J D ( IS=169u RS=4.81m N=6.02 BV=600 IBV=5u CJO=55.5p M=0.333 TT=360n)

*------------------------------------------------------------------------------
* RS2K - Fast Rectifier Diode
* VRRM = 800 V, IF = 1.5 A, trr ≈ 0.5 us
*------------------------------------------------------------------------------
.MODEL RS2K D ( IS=169u RS=4.81m N=6.02 BV=800 IBV=5u CJO=55.5p M=0.333 TT=720n)

*------------------------------------------------------------------------------
* RS2M - Fast Rectifier Diode
* VRRM = 1000 V, IF = 1.5 A, trr ≈ 0.5 us
*------------------------------------------------------------------------------
.MODEL RS2M D ( IS=169u RS=4.81m N=6.02 BV=1000 IBV=5u CJO=55.5p M=0.333 TT=720n)

*------------------------------------------------------------------------------
* RS3A - Fast Rectifier Diode
* VRRM = 50 V, IF = 3 A, trr ≈ 0.15 us
*------------------------------------------------------------------------------
.MODEL RS3A D ( IS=200n RS=25.4m N=2.23 BV=50 IBV=5u CJO=92.5p M=0.333 TT=216n)

*------------------------------------------------------------------------------
* RS3B - Fast Rectifier Diode
* VRRM = 100 V, IF = 3 A, trr ≈ 0.15 us
*------------------------------------------------------------------------------
.MODEL RS3B D ( IS=200n RS=25.4m N=2.23 BV=100 IBV=5u CJO=92.5p M=0.333 TT=216n)

*------------------------------------------------------------------------------
* RS3D - Fast Rectifier Diode
* VRRM = 200 V, IF = 3 A, trr ≈ 0.15 us
*------------------------------------------------------------------------------
.MODEL RS3D D ( IS=200n RS=25.4m N=2.23 BV=200 IBV=5u CJO=92.5p M=0.333 TT=216n)

*------------------------------------------------------------------------------
* RS3G - Fast Rectifier Diode
* VRRM = 400 V, IF = 3 A, trr ≈ 0.15 us
*------------------------------------------------------------------------------
.MODEL RS3G D ( IS=200n RS=25.4m N=2.23 BV=400 IBV=5u CJO=92.5p M=0.333 TT=216n)

*------------------------------------------------------------------------------
* RS3J - Fast Rectifier Diode
* VRRM = 600 V, IF = 3 A, trr ≈ 0.25 us
*------------------------------------------------------------------------------
.MODEL RS3J D ( IS=200n RS=25.4m N=2.23 BV=600 IBV=5u CJO=92.5p M=0.333 TT=360n)

*------------------------------------------------------------------------------
* RS3K - Fast Rectifier Diode
* VRRM = 800 V, IF = 3 A, trr ≈ 0.5 us
*------------------------------------------------------------------------------
.MODEL RS3K D ( IS=200n RS=25.4m N=2.23 BV=800 IBV=5u CJO=92.5p M=0.333 TT=720n)

*------------------------------------------------------------------------------
* RS3M - Fast Rectifier Diode
* VRRM = 1000 V, IF = 3 A, trr ≈ 0.5 us
*------------------------------------------------------------------------------
.MODEL RS3M D ( IS=200n RS=25.4m N=2.23 BV=1000 IBV=5u CJO=92.5p M=0.333 TT=720n)

*------------------------------------------------------------------------------
* MUR120 - Super Fast Rectifier Diode
* VRRM = 200 V, IF = 1 A, trr ≈ 0.025 us
*------------------------------------------------------------------------------
.MODEL MUR120 D ( IS=123n RS=73.4m N=2.12 BV=200 IBV=100u CJO=796p M=0.333 TT=7.20n)

*------------------------------------------------------------------------------
* MURS120 - Super Fast Rectifier Diode
* VRRM = 200 V, IF = 1 A, trr ≈ 0.025 us
*------------------------------------------------------------------------------
.MODEL MURS120 D ( IS=17.1n RS=20.6m N=1.73 BV=200 IBV=2u CJO=60.0p M=0.333 TT=216n)

*------------------------------------------------------------------------------
* MURS140 - Super Fast Rectifier Diode
* VRRM = 400 V, IF = 1 A, trr ≈ 0.05 us
*------------------------------------------------------------------------------
.MODEL MURS140 D ( IS=17.1n RS=20.6m N=1.73 BV=400 IBV=2u CJO=45.0p M=0.333 TT=72.0n)

*------------------------------------------------------------------------------
* MURS160 - Super Fast Rectifier Diode
* VRRM = 600 V, IF = 1 A, trr ≈ 0.05 us
*------------------------------------------------------------------------------
.MODEL MURS160 D ( IS=17.1n RS=20.6m N=1.73 BV=600 IBV=2u CJO=45.0p M=0.333 TT=72.0n)

*------------------------------------------------------------------------------
* MURS320 - Super Fast Rectifier Diode
* VRRM = 200 V, IF = 3 A, trr ≈ 0.025 us
*------------------------------------------------------------------------------
.MODEL MURS320 D ( IS=11.8n RS=7.89m N=1.56 BV=200 IBV=5u CJO=45.0p M=0.333 TT=36.0n)

*------------------------------------------------------------------------------
* UF1001 - Ultra-Fast Rectifier Diode
* VRRM = 50 V, IF = 1 A, trr ≈ 0.05 us
*------------------------------------------------------------------------------
.MODEL UF1001 D ( IS=125u RS=17.5m N=3.75 BV=50 IBV=5u CJO=79.6p M=0.333 TT=72.0n)

*------------------------------------------------------------------------------
* UF1002 - Ultra-Fast Rectifier Diode
* VRRM = 100 V, IF = 1 A, trr ≈ 0.05 us
*------------------------------------------------------------------------------
.MODEL UF1002 D ( IS=125u RS=17.5m N=3.75 BV=100 IBV=5u CJO=79.6p M=0.333 TT=72.0n)

*------------------------------------------------------------------------------
* UF1003 - Ultra-Fast Rectifier Diode
* VRRM = 200 V, IF = 1 A, trr ≈ 0.05 us
*------------------------------------------------------------------------------
.MODEL UF1003 D ( IS=125u RS=17.5m N=3.75 BV=200 IBV=5u CJO=79.6p M=0.333 TT=72.0n)

*------------------------------------------------------------------------------
* UF1004 - Ultra-Fast Rectifier Diode
* VRRM = 400 V, IF = 1 A, trr ≈ 0.05 us
*------------------------------------------------------------------------------
.MODEL UF1004 D ( IS=125u RS=17.5m N=3.75 BV=400 IBV=5u CJO=79.6p M=0.333 TT=72.0n)

*------------------------------------------------------------------------------
* UF1005 - Ultra-Fast Rectifier Diode
* VRRM = 600 V, IF = 1 A, trr ≈ 0.075 us
*------------------------------------------------------------------------------
.MODEL UF1005 D ( IS=125u RS=17.5m N=3.75 BV=600 IBV=5u CJO=79.6p M=0.333 TT=108n)

*------------------------------------------------------------------------------
* UF1006 - Ultra-Fast Rectifier Diode
* VRRM = 800 V, IF = 1 A, trr ≈ 0.075 us
*------------------------------------------------------------------------------
.MODEL UF1006 D ( IS=125u RS=17.5m N=3.75 BV=800 IBV=5u CJO=79.6p M=0.333 TT=108n)

*------------------------------------------------------------------------------
* UF1007 - Ultra-Fast Rectifier Diode
* VRRM = 1000 V, IF = 1 A, trr ≈ 0.075 us
*------------------------------------------------------------------------------
.MODEL UF1007 D ( IS=125u RS=17.5m N=3.75 BV=1000 IBV=5u CJO=79.6p M=0.333 TT=108n)

*------------------------------------------------------------------------------
* UF3001 - Ultra-Fast Rectifier Diode
* VRRM = 50 V, IF = 3 A, trr ≈ 0.05 us
*------------------------------------------------------------------------------
.MODEL UF3001 D ( IS=125u RS=17.5m N=3.75 BV=50 IBV=5u CJO=79.6p M=0.333 TT=72.0n)

*------------------------------------------------------------------------------
* UF3002 - Ultra-Fast Rectifier Diode
* VRRM = 100 V, IF = 3 A, trr ≈ 0.05 us
*------------------------------------------------------------------------------
.MODEL UF3002 D ( IS=125u RS=17.5m N=3.75 BV=100 IBV=5u CJO=79.6p M=0.333 TT=72.0n)

*------------------------------------------------------------------------------
* UF3003 - Ultra-Fast Rectifier Diode
* VRRM = 200 V, IF = 3 A, trr ≈ 0.05 us
*------------------------------------------------------------------------------
.MODEL UF3003 D ( IS=125u RS=17.5m N=3.75 BV=200 IBV=5u CJO=79.6p M=0.333 TT=72.0n)

*------------------------------------------------------------------------------
* UF3004 - Ultra-Fast Rectifier Diode
* VRRM = 400 V, IF = 3 A, trr ≈ 0.05 us
*------------------------------------------------------------------------------
.MODEL UF3004 D ( IS=125u RS=17.5m N=3.75 BV=400 IBV=5u CJO=79.6p M=0.333 TT=72.0n)

*------------------------------------------------------------------------------
* UF3005 - Ultra-Fast Rectifier Diode
* VRRM = 600 V, IF = 3 A, trr ≈ 0.075 us
*------------------------------------------------------------------------------
.MODEL UF3005 D ( IS=125u RS=17.5m N=3.75 BV=600 IBV=5u CJO=79.6p M=0.333 TT=108n)

*------------------------------------------------------------------------------
* UF3006 - Ultra-Fast Rectifier Diode
* VRRM = 800 V, IF = 3 A, trr ≈ 0.075 us
*------------------------------------------------------------------------------
.MODEL UF3006 D ( IS=125u RS=17.5m N=3.75 BV=800 IBV=5u CJO=79.6p M=0.333 TT=108n)

*------------------------------------------------------------------------------
* UF3007 - Ultra-Fast Rectifier Diode
* VRRM = 1000 V, IF = 3 A, trr ≈ 0.075 us
*------------------------------------------------------------------------------
.MODEL UF3007 D ( IS=125u RS=17.5m N=3.75 BV=1000 IBV=5u CJO=79.6p M=0.333 TT=108n)

*------------------------------------------------------------------------------
* PR1001G - Fast Rectifier Diode
* VRRM = 50 V, IF = 1 A, trr ≈ 0.15 us
*------------------------------------------------------------------------------
.MODEL PR1001G D ( IS=5.00n RS=29.8m N=1.72 BV=50 IBV=5u CJO=27.8p M=0.333 TT=216n)

*------------------------------------------------------------------------------
* PR1002G - Fast Rectifier Diode
* VRRM = 100 V, IF = 1 A, trr ≈ 0.15 us
*------------------------------------------------------------------------------
.MODEL PR1002G D ( IS=5.00n RS=29.8m N=1.72 BV=100 IBV=5u CJO=27.8p M=0.333 TT=216n)

*------------------------------------------------------------------------------
* PR1003G - Fast Rectifier Diode
* VRRM = 200 V, IF = 1 A, trr ≈ 0.15 us
*------------------------------------------------------------------------------
.MODEL PR1003G D ( IS=5.00n RS=29.8m N=1.72 BV=200 IBV=5u CJO=27.8p M=0.333 TT=216n)

*------------------------------------------------------------------------------
* PR1004G - Fast Rectifier Diode
* VRRM = 400 V, IF = 1 A, trr ≈ 0.15 us
*------------------------------------------------------------------------------
.MODEL PR1004G D ( IS=5.00n RS=29.8m N=1.72 BV=400 IBV=5u CJO=27.8p M=0.333 TT=216n)

*------------------------------------------------------------------------------
* PR1005G - Fast Rectifier Diode
* VRRM = 600 V, IF = 1 A, trr ≈ 0.25 us
*------------------------------------------------------------------------------
.MODEL PR1005G D ( IS=5.00n RS=29.8m N=1.72 BV=600 IBV=5u CJO=27.8p M=0.333 TT=360n)

*------------------------------------------------------------------------------
* PR1006G - Fast Rectifier Diode
* VRRM = 800 V, IF = 1 A, trr ≈ 0.5 us
*------------------------------------------------------------------------------
.MODEL PR1006G D ( IS=5.00n RS=29.8m N=1.72 BV=800 IBV=5u CJO=27.8p M=0.333 TT=720n)

*------------------------------------------------------------------------------
* PR1007G - Fast Rectifier Diode
* VRRM = 1000 V, IF = 1 A, trr ≈ 0.5 us
*------------------------------------------------------------------------------
.MODEL PR1007G D ( IS=5.00n RS=29.8m N=1.72 BV=1000 IBV=5u CJO=27.8p M=0.333 TT=720n)

*------------------------------------------------------------------------------
* PDR3G - Standard Recovery Rectifier Diode
* VRRM = 400 V, IF = 3 A, trr ≈ 3.09 us
*------------------------------------------------------------------------------
.MODEL PDR3G D ( IS=5.82n RS=13.9m N=1.70 BV=400 IBV=10u CJO=38.5p M=0.333 TT=4.45u)

*------------------------------------------------------------------------------
* PDR5G - Standard Recovery Rectifier Diode
* VRRM = 400 V, IF = 5 A, trr ≈ 3.32 us
*------------------------------------------------------------------------------
.MODEL PDR5G D ( IS=8.05n RS=8.40m N=1.70 BV=400 IBV=10u CJO=75.6p M=0.333 TT=4.78u)
