
*------------------------------------------------------------------------------
* MBR1030 - Schottky Rectifier Diode
* VRRM = 30 V, IF = 10 A, trr ≈ N/A
*------------------------------------------------------------------------------
.MODEL MBR1030 D ( IS=2.62m RS=4.20m N=2.12 BV=30 IBV=100u CJO=796p M=0.333 TT=7.20n)

*------------------------------------------------------------------------------
* MBR1030CT - Schottky Rectifier Diode
* VRRM = 30 V, IF = 10 A, trr ≈ N/A
*------------------------------------------------------------------------------
.MODEL MBR1030CT D ( IS=4.25u RS=13.0m N=1.15 BV=30 IBV=100u CJO=318p M=0.333 TT=14.4n)

*------------------------------------------------------------------------------
* MBR1035 - Schottky Rectifier Diode
* VRRM = 35 V, IF = 10 A, trr ≈ N/A
*------------------------------------------------------------------------------
.MODEL MBR1035 D ( IS=2.62m RS=4.20m N=2.12 BV=35 IBV=100u CJO=796p M=0.333 TT=7.20n)

*------------------------------------------------------------------------------
* MBR1040 - Schottky Rectifier Diode
* VRRM = 40 V, IF = 10 A, trr ≈ N/A
*------------------------------------------------------------------------------
.MODEL MBR1040 D ( IS=2.62m RS=4.20m N=2.12 BV=40 IBV=100u CJO=796p M=0.333 TT=7.20n)

*------------------------------------------------------------------------------
* MBR1045 - Schottky Rectifier Diode
* VRRM = 45 V, IF = 10 A, trr ≈ N/A
*------------------------------------------------------------------------------
.MODEL MBR1045 D ( IS=2.62m RS=4.20m N=2.12 BV=45 IBV=100u CJO=796p M=0.333 TT=7.20n)

*------------------------------------------------------------------------------
* MBR1050 - Schottky Rectifier Diode
* VRRM = 50 V, IF = 10 A, trr ≈ N/A
*------------------------------------------------------------------------------
.MODEL MBR1050 D ( IS=153u RS=3.17m N=1.96 BV=50 IBV=100u CJO=796p M=0.333 TT=7.20n)

*------------------------------------------------------------------------------
* MBR1060 - Schottky Rectifier Diode
* VRRM = 60 V, IF = 10 A, trr ≈ N/A
*------------------------------------------------------------------------------
.MODEL MBR1060 D ( IS=153u RS=3.17m N=1.96 BV=60 IBV=100u CJO=796p M=0.333 TT=7.20n)

*------------------------------------------------------------------------------
* MBR1530CT - Schottky Rectifier Diode
* VRRM = 30 V, IF = 15 A, trr ≈ N/A
*------------------------------------------------------------------------------
.MODEL MBR1530CT D ( IS=344u RS=2.81m N=2.28 BV=30 IBV=25u CJO=530p M=0.333 TT=7.20n)

*------------------------------------------------------------------------------
* MBR1535CT - Schottky Rectifier Diode
* VRRM = 35 V, IF = 15 A, trr ≈ N/A
*------------------------------------------------------------------------------
.MODEL MBR1535CT D ( IS=344u RS=2.81m N=2.28 BV=35 IBV=25u CJO=530p M=0.333 TT=7.20n)

*------------------------------------------------------------------------------
* MBR1540CT - Schottky Rectifier Diode
* VRRM = 40 V, IF = 15 A, trr ≈ N/A
*------------------------------------------------------------------------------
.MODEL MBR1540CT D ( IS=344u RS=2.81m N=2.28 BV=40 IBV=25u CJO=530p M=0.333 TT=7.20n)

*------------------------------------------------------------------------------
* MBR1545CT - Schottky Rectifier Diode
* VRRM = 45 V, IF = 15 A, trr ≈ N/A
*------------------------------------------------------------------------------
.MODEL MBR1545CT D ( IS=344u RS=2.81m N=2.28 BV=45 IBV=25u CJO=530p M=0.333 TT=7.20n)

*------------------------------------------------------------------------------
* MBR1550CT - Schottky Rectifier Diode
* VRRM = 50 V, IF = 15 A, trr ≈ N/A
*------------------------------------------------------------------------------
.MODEL MBR1550CT D ( IS=11.3u RS=2.64m N=1.87 BV=50 IBV=25u CJO=530p M=0.333 TT=7.20n)

*------------------------------------------------------------------------------
* MBR1560CT - Schottky Rectifier Diode
* VRRM = 60 V, IF = 15 A, trr ≈ N/A
*------------------------------------------------------------------------------
.MODEL MBR1560CT D ( IS=11.3u RS=2.64m N=1.87 BV=60 IBV=25u CJO=530p M=0.333 TT=7.20n)

*------------------------------------------------------------------------------
* MBR2030CT - Schottky Rectifier Diode
* VRRM = 30 V, IF = 20 A, trr ≈ N/A
*------------------------------------------------------------------------------
.MODEL MBR2030CT D ( IS=99.0u RS=2.10m N=1.70 BV=30 IBV=60u CJO=994p M=0.333 TT=1.44n)

*------------------------------------------------------------------------------
* MBR2035CT - Schottky Rectifier Diode
* VRRM = 35 V, IF = 20 A, trr ≈ N/A
*------------------------------------------------------------------------------
.MODEL MBR2035CT D ( IS=99.0u RS=2.10m N=1.70 BV=35 IBV=60u CJO=994p M=0.333 TT=1.44n)

*------------------------------------------------------------------------------
* MBR2040CT - Schottky Rectifier Diode
* VRRM = 40 V, IF = 20 A, trr ≈ N/A
*------------------------------------------------------------------------------
.MODEL MBR2040CT D ( IS=99.0u RS=2.10m N=1.70 BV=40 IBV=60u CJO=994p M=0.333 TT=1.44n)

*------------------------------------------------------------------------------
* MBR2045CT - Schottky Rectifier Diode
* VRRM = 45 V, IF = 20 A, trr ≈ N/A
*------------------------------------------------------------------------------
.MODEL MBR2045CT D ( IS=99.0u RS=2.10m N=1.70 BV=45 IBV=60u CJO=994p M=0.333 TT=1.44n)

*------------------------------------------------------------------------------
* MBR2050CT - Schottky Rectifier Diode
* VRRM = 50 V, IF = 20 A, trr ≈ N/A
*------------------------------------------------------------------------------
.MODEL MBR2050CT D ( IS=16.0u RS=2.11m N=1.70 BV=50 IBV=60u CJO=994p M=0.333 TT=1.44n)

*------------------------------------------------------------------------------
* MBR2060CT - Schottky Rectifier Diode
* VRRM = 60 V, IF = 20 A, trr ≈ N/A
*------------------------------------------------------------------------------
.MODEL MBR2060CT D ( IS=16.0u RS=2.11m N=1.70 BV=60 IBV=60u CJO=994p M=0.333 TT=1.44n)

*------------------------------------------------------------------------------
* MBR2535CT - Schottky Rectifier Diode
* VRRM = 35 V, IF = 25 A, trr ≈ N/A
*------------------------------------------------------------------------------
.MODEL MBR2535CT D ( IS=533u RS=1.41m N=1.95 BV=35 IBV=50u CJO=1.34n M=0.333 TT=1.44n)

*------------------------------------------------------------------------------
* MBR2545CT - Schottky Rectifier Diode
* VRRM = 45 V, IF = 25 A, trr ≈ N/A
*------------------------------------------------------------------------------
.MODEL MBR2545CT D ( IS=533u RS=1.41m N=1.95 BV=45 IBV=50u CJO=1.34n M=0.333 TT=1.44n)

*------------------------------------------------------------------------------
* MBR2550CT - Schottky Rectifier Diode
* VRRM = 50 V, IF = 25 A, trr ≈ N/A
*------------------------------------------------------------------------------
.MODEL MBR2550CT D ( IS=1.16m RS=1.41m N=2.53 BV=50 IBV=50u CJO=1.34k M=0.333 TT=1.44n)

*------------------------------------------------------------------------------
* MBR2560CT - Schottky Rectifier Diode
* VRRM = 60 V, IF = 25 A, trr ≈ N/A
*------------------------------------------------------------------------------
.MODEL MBR2560CT D ( IS=1.16m RS=1.41m N=2.53 BV=60 IBV=50u CJO=1.34k M=0.333 TT=1.44n)

*------------------------------------------------------------------------------
* MBRB1530CT - Schottky Rectifier Diode
* VRRM = 30 V, IF = 15 A, trr ≈ N/A
*------------------------------------------------------------------------------
.MODEL MBRB1530CT D ( IS=71.5u RS=2.81m N=1.61 BV=30 IBV=100u CJO=464p M=0.333 TT=43.2n)

*------------------------------------------------------------------------------
* MBRB1535CT - Schottky Rectifier Diode
* VRRM = 35 V, IF = 15 A, trr ≈ N/A
*------------------------------------------------------------------------------
.MODEL MBRB1535CT D ( IS=71.5u RS=2.81m N=1.61 BV=35 IBV=100u CJO=464p M=0.333 TT=43.2n)

*------------------------------------------------------------------------------
* MBRB1540CT - Schottky Rectifier Diode
* VRRM = 40 V, IF = 15 A, trr ≈ N/A
*------------------------------------------------------------------------------
.MODEL MBRB1540CT D ( IS=71.5u RS=2.81m N=1.61 BV=40 IBV=100u CJO=464p M=0.333 TT=43.2n)

*------------------------------------------------------------------------------
* MBRB1545CT - Schottky Rectifier Diode
* VRRM = 45 V, IF = 15 A, trr ≈ N/A
*------------------------------------------------------------------------------
.MODEL MBRB1545CT D ( IS=71.5u RS=2.81m N=1.61 BV=45 IBV=100u CJO=464p M=0.333 TT=43.2n)

*------------------------------------------------------------------------------
* SBL1030 - Schottky Rectifier Diode
* VRRM = 30 V, IF = 10 A, trr ≈ N/A
*------------------------------------------------------------------------------
.MODEL SBL1030 D ( IS=759u RS=9.47m N=1.69 BV=30 IBV=500u CJO=968p M=0.333 TT=14.4n)

*------------------------------------------------------------------------------
* SBL1035 - Schottky Rectifier Diode
* VRRM = 35 V, IF = 10 A, trr ≈ N/A
*------------------------------------------------------------------------------
.MODEL SBL1035 D ( IS=759u RS=9.47m N=1.69 BV=35 IBV=500u CJO=968p M=0.333 TT=14.4n)

*------------------------------------------------------------------------------
* SBL1040 - Schottky Rectifier Diode
* VRRM = 40 V, IF = 10 A, trr ≈ N/A
*------------------------------------------------------------------------------
.MODEL SBL1040 D ( IS=759u RS=9.47m N=1.69 BV=40 IBV=500u CJO=968p M=0.333 TT=14.4n)

*------------------------------------------------------------------------------
* SBL1045 - Schottky Rectifier Diode
* VRRM = 45 V, IF = 10 A, trr ≈ N/A
*------------------------------------------------------------------------------
.MODEL SBL1045 D ( IS=759u RS=9.47m N=1.69 BV=45 IBV=500u CJO=968p M=0.333 TT=14.4n)

*------------------------------------------------------------------------------
* SBL1050 - Schottky Rectifier Diode
* VRRM = 50 V, IF = 10 A, trr ≈ N/A
*------------------------------------------------------------------------------
.MODEL SBL1050 D ( IS=14.0u RS=8.33m N=1.70 BV=50 IBV=500u CJO=133p M=0.333 TT=7.20n)

*------------------------------------------------------------------------------
* SBL1060 - Schottky Rectifier Diode
* VRRM = 60 V, IF = 10 A, trr ≈ N/A
*------------------------------------------------------------------------------
.MODEL SBL1060 D ( IS=14.0u RS=8.33m N=1.70 BV=60 IBV=500u CJO=133p M=0.333 TT=7.20n)

*------------------------------------------------------------------------------
* SBL2030CT - Schottky Rectifier Diode
* VRRM = 30 V, IF = 20 A, trr ≈ N/A
*------------------------------------------------------------------------------
.MODEL SBL2030CT D ( IS=99.0u RS=2.10m N=1.70 BV=30 IBV=60u CJO=994p M=0.333 TT=1.44n)

*------------------------------------------------------------------------------
* SBL2035CT - Schottky Rectifier Diode
* VRRM = 35 V, IF = 20 A, trr ≈ N/A
*------------------------------------------------------------------------------
.MODEL SBL2035CT D ( IS=99.0u RS=2.10m N=1.70 BV=35 IBV=60u CJO=994p M=0.333 TT=1.44n)

*------------------------------------------------------------------------------
* SBL2040CT - Schottky Rectifier Diode
* VRRM = 40 V, IF = 20 A, trr ≈ N/A
*------------------------------------------------------------------------------
.MODEL SBL2040CT D ( IS=99.0u RS=2.10m N=1.70 BV=40 IBV=60u CJO=994p M=0.333 TT=1.44n)

*------------------------------------------------------------------------------
* SBL2045CT - Schottky Rectifier Diode
* VRRM = 45 V, IF = 20 A, trr ≈ N/A
*------------------------------------------------------------------------------
.MODEL SBL2045CT D ( IS=99.0u RS=2.10m N=1.70 BV=45 IBV=60u CJO=994p M=0.333 TT=1.44n)

*------------------------------------------------------------------------------
* SBL2050CT - Schottky Rectifier Diode
* VRRM = 50 V, IF = 20 A, trr ≈ N/A
*------------------------------------------------------------------------------
.MODEL SBL2050CT D ( IS=16.0u RS=2.11m N=1.70 BV=50 IBV=60u CJO=994p M=0.333 TT=1.44n)

*------------------------------------------------------------------------------
* SBL2060CT - Schottky Rectifier Diode
* VRRM = 60 V, IF = 20 A, trr ≈ N/A
*------------------------------------------------------------------------------
.MODEL SBL2060CT D ( IS=16.0u RS=2.11m N=1.70 BV=60 IBV=60u CJO=994p M=0.333 TT=1.44n)

*------------------------------------------------------------------------------
* SBL3030CT - Schottky Rectifier Diode
* VRRM = 30 V, IF = 30 A, trr ≈ N/A
*------------------------------------------------------------------------------
.MODEL SBL3030CT D ( IS=200u RS=1.92m N=1.42 BV=30 IBV=1m CJO=809p M=0.333 TT=2.23n)

*------------------------------------------------------------------------------
* SBL3040CT - Schottky Rectifier Diode
* VRRM = 40 V, IF = 30 A, trr ≈ N/A
*------------------------------------------------------------------------------
.MODEL SBL3040CT D ( IS=200u RS=1.92m N=1.42 BV=40 IBV=1m CJO=809p M=0.333 TT=2.23n)

*------------------------------------------------------------------------------
* SBL4030PT - Schottky Rectifier Diode
* VRRM = 30 V, IF = 40 A, trr ≈ N/A
*------------------------------------------------------------------------------
.MODEL SBL4030PT D ( IS=10.9u RS=1.53m N=1.08 BV=30 IBV=1m CJO=1.78n M=0.333 TT=14.4n)

*------------------------------------------------------------------------------
* SBL4035PT - Schottky Rectifier Diode
* VRRM = 35 V, IF = 40 A, trr ≈ N/A
*------------------------------------------------------------------------------
.MODEL SBL4035PT D ( IS=10.9u RS=1.53m N=1.08 BV=35 IBV=1m CJO=1.78n M=0.333 TT=14.4n)

*------------------------------------------------------------------------------
* SBL4040PT - Schottky Rectifier Diode
* VRRM = 40 V, IF = 40 A, trr ≈ N/A
*------------------------------------------------------------------------------
.MODEL SBL4040PT D ( IS=10.9u RS=1.53m N=1.08 BV=40 IBV=1m CJO=1.78n M=0.333 TT=14.4n)

*------------------------------------------------------------------------------
* SBL4045PT - Schottky Rectifier Diode
* VRRM = 45 V, IF = 40 A, trr ≈ N/A
*------------------------------------------------------------------------------
.MODEL SBL4045PT D ( IS=10.9u RS=1.53m N=1.08 BV=45 IBV=1m CJO=1.78n M=0.333 TT=14.4n)

*------------------------------------------------------------------------------
* SBL4050PT - Schottky Rectifier Diode
* VRRM = 50 V, IF = 40 A, trr ≈ N/A
*------------------------------------------------------------------------------
.MODEL SBL4050PT D ( IS=10.9u RS=1.53m N=1.08 BV=50 IBV=1m CJO=1.78n M=0.333 TT=14.4n)

*------------------------------------------------------------------------------
* SBL4060PT - Schottky Rectifier Diode
* VRRM = 60 V, IF = 40 A, trr ≈ N/A
*------------------------------------------------------------------------------
.MODEL SBL4060PT D ( IS=10.9u RS=1.53m N=1.08 BV=60 IBV=1m CJO=1.78n M=0.333 TT=14.4n)

*------------------------------------------------------------------------------
* SBL6030PT - Schottky Rectifier Diode
* VRRM = 30 V, IF = 60 A, trr ≈ N/A
*------------------------------------------------------------------------------
.MODEL SBL6030PT D ( IS=10.9u RS=1.53m N=1.08 BV=30 IBV=1m CJO=1.78n M=0.333 TT=14.4n)

*------------------------------------------------------------------------------
* SBL6040PT - Schottky Rectifier Diode
* VRRM = 40 V, IF = 60 A, trr ≈ N/A
*------------------------------------------------------------------------------
.MODEL SBL6040PT D ( IS=10.9u RS=1.53m N=1.08 BV=40 IBV=1m CJO=1.78n M=0.333 TT=14.4n)

*------------------------------------------------------------------------------
* SBL6050PT - Schottky Rectifier Diode
* VRRM = 50 V, IF = 60 A, trr ≈ N/A
*------------------------------------------------------------------------------
.MODEL SBL6050PT D ( IS=10.9u RS=1.53m N=1.08 BV=50 IBV=1m CJO=1.78n M=0.333 TT=14.4n)

*------------------------------------------------------------------------------
* SBL6060PT - Schottky Rectifier Diode
* VRRM = 60 V, IF = 60 A, trr ≈ N/A
*------------------------------------------------------------------------------
.MODEL SBL6060PT D ( IS=10.9u RS=1.53m N=1.08 BV=60 IBV=1m CJO=1.78n M=0.333 TT=14.4n)

*------------------------------------------------------------------------------
* SBRT10M50SP5 - Trench Super Barrier Rectifier
* VRRM = 50 V, IF = 10 A, trr ≈ N/A
*------------------------------------------------------------------------------
.MODEL SBRT10M50SP5 D ( IS=29.37u RS=7.908m N=1.023 BV=55 IBV=10u CJO=10.76n M=0.4339 TT=33.00n EG=480.0m VJ=14.89m)

*------------------------------------------------------------------------------
* SBRT10U50SP5 - Trench Super Barrier Rectifier
* VRRM = 50 V, IF = 10 A, trr ≈ N/A
*------------------------------------------------------------------------------
.MODEL SBRT10U50SP5 D ( IS=47.29u RS=7.545m N=1.010 BV=55 IBV=10u CJO=5.815n M=0.4265 TT=38.20n EG=480.0m VJ=35.52m)

*------------------------------------------------------------------------------
* SBRT15U100SP5 - Trench Super Barrier Rectifier
* VRRM = 100 V, IF = 15 A, trr ≈ N/A
*------------------------------------------------------------------------------
.MODEL SBRT15U100SP5 D ( IS=14.76u RS=19.00m N=1.023 BV=110 IBV=10u CJO=10.76n M=0.5199 TT=29.10n EG=480.0m VJ=14.89m)

*------------------------------------------------------------------------------
* SBRT20M60SP5 - Trench Super Barrier Rectifier
* VRRM = 60 V, IF = 20 A, trr ≈ N/A
*------------------------------------------------------------------------------
.MODEL SBRT20M60SP5 D ( IS=17.25u RS=7.887m N=1.019 BV=66 IBV=10u CJO=14.41n M=0.5260 TT=44.20n EG=480.0m VJ=21.52m)

*------------------------------------------------------------------------------
* SBRT20U50SLP - Trench Super Barrier Rectifier
* VRRM = 50 V, IF = 20 A, trr ≈ N/A
*------------------------------------------------------------------------------
.MODEL SBRT20U50SLP D ( IS=60.50u RS=6.029m N=1.017 BV=55 IBV=10u CJO=13.00n M=0.4733 TT=10.00n EG=480.0m VJ=20.19m)

*------------------------------------------------------------------------------
* SBRT20U60SP5 - Trench Super Barrier Rectifier
* VRRM = 60 V, IF = 20 A, trr ≈ N/A
*------------------------------------------------------------------------------
.MODEL SBRT20U60SP5 D ( IS=53.48u RS=7.620m N=1.019 BV=66 IBV=10u CJO=14.07n M=0.5293 TT=43.20n EG=480.0m VJ=23.66m)

*------------------------------------------------------------------------------
* SBRT25M50SLP - Trench Super Barrier Rectifier
* VRRM = 50 V, IF = 25 A, trr ≈ N/A
*------------------------------------------------------------------------------
.MODEL SBRT25M50SLP D ( IS=21.40u RS=5.797m N=1.014 BV=55 IBV=10u CJO=21.87n M=0.5305 TT=59.50n EG=480.0m VJ=19.30m)

*------------------------------------------------------------------------------
* SBR1U400P1 - Super Barrier Rectifier
* VRRM = 400 V, IF = 1 A, trr ≈ N/A
*------------------------------------------------------------------------------
.MODEL SBR1U400P1 D ( IS=1.020m RS=1.983m N=3.651 BV=400 IBV=10u CJO=1.164n M=0.4619 TT=10.00n EG=480.0m VJ=12.68m)

*------------------------------------------------------------------------------
* SBR1U150SA - Super Barrier Rectifier
* VRRM = 150 V, IF = 1 A, trr ≈ N/A
*------------------------------------------------------------------------------
.MODEL SBR1U150SA D ( IS=4u RS=.3m N=1.05 BV=160 IBV=150u CJO=951p M=0.333 TT=14.4n)

*------------------------------------------------------------------------------
* SBR1U30CSP - Super Barrier Rectifier
* VRRM = 30 V, IF = 1 A, trr ≈ N/A
*------------------------------------------------------------------------------
.MODEL SBR1U30CSP D ( IS=5.5u RS=50m N=1.05 BV=32 IBV=150u CJO=750p M=1 VJ=.45 TT=30n EG=.5 TRS1=5m)

*------------------------------------------------------------------------------
* SBR1U30SV - Super Barrier Rectifier
* VRRM = 30 V, IF = 1 A, trr ≈ N/A
*------------------------------------------------------------------------------
.MODEL SBR1U30SV D ( IS=5.5u RS=45m N=1.05 BV=32 IBV=150u CJO=750p M=1 VJ=.45 TT=30n EG=.5 TRS1=5m)

*------------------------------------------------------------------------------
* SBR2U10LP - Super Barrier Rectifier
* VRRM = 100 V, IF = 2 A, trr ≈ N/A
*------------------------------------------------------------------------------
.MODEL SBR2U10LP D ( IS=26u RS=20m N=1.05 BV=110 IBV=150u CJO=790p M=0.333 TT=14.4n)

*------------------------------------------------------------------------------
* SBR2U150SA - Super Barrier Rectifier
* VRRM = 150 V, IF = 2 A, trr ≈ N/A
*------------------------------------------------------------------------------
.MODEL SBR2U150SA D ( IS=4u RS=.3m N=1.05 BV=160 IBV=150u CJO=951p M=0.333 TT=14.4n)

*------------------------------------------------------------------------------
* SBR3U100LP - Super Barrier Rectifier
* VRRM = 100 V, IF = 3 A, trr ≈ N/A
*------------------------------------------------------------------------------
.MODEL SBR3U100LP D ( IS=8.73u RS=34.4m N=1.10 BV=110 IBV=16u CJO=70.9p M=0.333 TT=15.8n)

*------------------------------------------------------------------------------
* SBR40U300CTB - Super Barrier Rectifier
* VRRM = 300 V, IF = 40 A, trr ≈ N/A
*------------------------------------------------------------------------------
.MODEL SBR40U300CTB D ( IS=233.1n RS=16.34m N=1.424 BV=330 IBV=10u CJO=1.055n M=0.3396 TT=33.00n EG=480.0m VJ=504.9m)

*------------------------------------------------------------------------------
* SBR60A300CTB - Super Barrier Rectifier
* VRRM = 300 V, IF = 60 A, trr ≈ N/A
*------------------------------------------------------------------------------
.MODEL SBR60A300CTB D ( IS=233.1n RS=16.34m N=1.424 BV=330 IBV=10u CJO=1.055n M=0.3396 TT=33.00n EG=480.0m VJ=504.9m)

*------------------------------------------------------------------------------
* SBR60A60CT - Super Barrier Rectifier
* VRRM = 60 V, IF = 60 A, trr ≈ N/A
*------------------------------------------------------------------------------
.MODEL SBR60A60CT D ( IS=66.7u RS=14.1m N=1.70 BV=60 IBV=500u CJO=497p M=0.333 TT=7.20n)