
*==============================================================================
* Library      : Rectifier Diodes Library
* Category     : Standard Rectifier Diodes (1A - 3A)
* Format       : SPICE Model (.MODEL)
* Last Update  : 2026-06-21 
*==============================================================================

*------------------------------------------------------------------------------
* 1N4001 - Rectifier Diode
* VRRM = 50 V, IF = 1 A, trr ≈ 3 us
*------------------------------------------------------------------------------
.MODEL 1N4001 D ( IS=76.9p RS=42.0m N=1.45 BV=50 IBV=5u CJO=39.8p M=0.333 TT=4.32u)

*------------------------------------------------------------------------------
* 1N4002 - Rectifier Diode
* VRRM = 100 V, IF = 1 A, trr ≈ 3 us
*------------------------------------------------------------------------------
.MODEL 1N4002 D ( IS=76.9p RS=42.0m N=1.45 BV=100 IBV=5u CJO=39.8p M=0.333 TT=4.32u)

*------------------------------------------------------------------------------
* 1N4003 - Rectifier Diode
* VRRM = 200 V, IF = 1 A, trr ≈ 3 us
*------------------------------------------------------------------------------
.MODEL 1N4003 D ( IS=76.9p RS=42.0m N=1.45 BV=200 IBV=5u CJO=39.8p M=0.333 TT=4.32u)

*------------------------------------------------------------------------------
* 1N4004 - Rectifier Diode
* VRRM = 400 V, IF = 1 A, trr ≈ 3 us
*------------------------------------------------------------------------------
.MODEL 1N4004 D ( IS=76.9p RS=42.0m N=1.45 BV=400 IBV=5u CJO=39.8p M=0.333 TT=4.32u)

*------------------------------------------------------------------------------
* 1N4005 - Rectifier Diode
* VRRM = 600 V, IF = 1 A, trr ≈ 3 us
*------------------------------------------------------------------------------
.MODEL 1N4005 D ( IS=76.9p RS=42.0m N=1.45 BV=600 IBV=5u CJO=39.8p M=0.333 TT=4.32u)

*------------------------------------------------------------------------------
* 1N4006 - Rectifier Diode
* VRRM = 800 V, IF = 1 A, trr ≈ 3 us
*------------------------------------------------------------------------------
.MODEL 1N4006 D ( IS=76.9p RS=42.0m N=1.45 BV=800 IBV=5u CJO=39.8p M=0.333 TT=4.32u)

*------------------------------------------------------------------------------
* 1N4007 - Rectifier Diode
* VRRM = 1000 V, IF = 1 A, trr ≈ 3 us
*------------------------------------------------------------------------------
.MODEL 1N4007 D ( IS=76.9p RS=42.0m N=1.45 BV=1000 IBV=5u CJO=39.8p M=0.333 TT=4.32u)

*------------------------------------------------------------------------------
* 1N5400 - Standard Rectifier Diode
* VRRM = 50 V, IF = 3 A, trr ≈ 3 us
*------------------------------------------------------------------------------
.MODEL 1N5400 D ( IS=63.0n RS=14.1m N=1.70 BV=50 IBV=10u CJO=125p M=0.333 TT=4.32u)

*------------------------------------------------------------------------------
* 1N5401 - Standard Rectifier Diode
* VRRM = 100 V, IF = 3 A, trr ≈ 3 us
*------------------------------------------------------------------------------
.MODEL 1N5401 D ( IS=63.0n RS=14.1m N=1.70 BV=100 IBV=10u CJO=125p M=0.333 TT=4.32u)

*------------------------------------------------------------------------------
* 1N5402 - Standard Rectifier Diode
* VRRM = 200 V, IF = 3 A, trr ≈ 3 us
*------------------------------------------------------------------------------
.MODEL 1N5402 D ( IS=63.0n RS=14.1m N=1.70 BV=200 IBV=10u CJO=125p M=0.333 TT=4.32u)

*------------------------------------------------------------------------------
* 1N5404 - Standard Rectifier Diode
* VRRM = 400 V, IF = 3 A, trr ≈ 3 us
*------------------------------------------------------------------------------
.MODEL 1N5404 D ( IS=63.0n RS=14.1m N=1.70 BV=400 IBV=10u CJO=125p M=0.333 TT=4.32u)

*------------------------------------------------------------------------------
* 1N5406 - Standard Rectifier Diode
* VRRM = 600 V, IF = 3 A, trr ≈ 3 us
*------------------------------------------------------------------------------
.MODEL 1N5406 D ( IS=63.0n RS=14.1m N=1.70 BV=600 IBV=10u CJO=125p M=0.333 TT=4.32u)

*------------------------------------------------------------------------------
* 1N5407 - Standard Rectifier Diode
* VRRM = 800 V, IF = 3 A, trr ≈ 3 us
*------------------------------------------------------------------------------
.MODEL 1N5407 D ( IS=63.0n RS=14.1m N=1.70 BV=800 IBV=10u CJO=125p M=0.333 TT=4.32u)

*------------------------------------------------------------------------------
* 1N5408 - Standard Rectifier Diode
* VRRM = 1000 V, IF = 3 A, trr ≈ 3 us
*------------------------------------------------------------------------------
.MODEL 1N5408 D ( IS=63.0n RS=14.1m N=1.70 BV=1000 IBV=10u CJO=125p M=0.333 TT=4.32u)

*------------------------------------------------------------------------------
* S1A - Rectifier Diode
* VRRM = 50 V, IF = 1 A, trr ≈ 3 us
*------------------------------------------------------------------------------
.MODEL S1A D ( IS=7.31e-18 RS=42.0m N=0.775 BV=50 IBV=5u CJO=42.4p M=0.333 TT=4.32u)

*------------------------------------------------------------------------------
* S1B - Rectifier Diode
* VRRM = 100 V, IF = 1 A, trr ≈ 3 us
*------------------------------------------------------------------------------
.MODEL S1B D ( IS=7.31e-18 RS=42.0m N=0.775 BV=100 IBV=5u CJO=42.4p M=0.333 TT=4.32u)

*------------------------------------------------------------------------------
* S1D - Rectifier Diode
* VRRM = 200 V, IF = 1 A, trr ≈ 3 us
*------------------------------------------------------------------------------
.MODEL S1D D ( IS=7.31e-18 RS=42.0m N=0.775 BV=200 IBV=5u CJO=42.4p M=0.333 TT=4.32u)

*------------------------------------------------------------------------------
* S1G - Rectifier Diode
* VRRM = 400 V, IF = 1 A, trr ≈ 3 us
*------------------------------------------------------------------------------
.MODEL S1G D ( IS=7.31e-18 RS=42.0m N=0.775 BV=400 IBV=5u CJO=42.4p M=0.333 TT=4.32u)

*------------------------------------------------------------------------------
* S1J - Rectifier Diode
* VRRM = 600 V, IF = 1 A, trr ≈ 3 us
*------------------------------------------------------------------------------
.MODEL S1J D ( IS=7.31e-18 RS=42.0m N=0.775 BV=600 IBV=5u CJO=42.4p M=0.333 TT=4.32u)

*------------------------------------------------------------------------------
* S1K - Rectifier Diode
* VRRM = 800 V, IF = 1 A, trr ≈ 3 us
*------------------------------------------------------------------------------
.MODEL S1K D ( IS=7.31e-18 RS=42.0m N=0.775 BV=800 IBV=5u CJO=42.4p M=0.333 TT=4.32u)

*------------------------------------------------------------------------------
* S1M - Rectifier Diode
* VRRM = 1000 V, IF = 1 A, trr ≈ 3 us
*------------------------------------------------------------------------------
.MODEL S1M D ( IS=7.31e-18 RS=42.0m N=0.775 BV=1000 IBV=5u CJO=42.4p M=0.333 TT=4.32u)